Version 4
SHEET 1 904 680
WIRE 240 16 176 16
WIRE 384 16 320 16
WIRE 560 32 496 32
WIRE 496 112 496 32
WIRE 496 112 240 112
WIRE 80 128 -48 128
WIRE 176 128 176 16
WIRE 176 128 160 128
WIRE 208 128 176 128
WIRE -48 144 -48 128
WIRE 384 144 384 16
WIRE 384 144 272 144
WIRE 416 144 384 144
WIRE 208 160 176 160
WIRE 176 192 176 160
WIRE 240 192 240 176
WIRE 480 192 240 192
WIRE 480 208 480 192
WIRE -48 272 -48 224
FLAG 176 192 0
FLAG -48 272 0
FLAG 560 112 0
FLAG 480 288 0
SYMBOL res 176 112 R90
WINDOW 0 -6 54 VBottom 2
WINDOW 3 32 56 VTop 2
SYMATTR InstName R1
SYMATTR Value 2k
SYMBOL voltage -48 128 R0
WINDOW 3 -89 109 Left 2
WINDOW 123 0 0 Left 2
WINDOW 39 0 0 Left 2
SYMATTR Value SINE(-0.25 0.25 10)
SYMATTR InstName V1
SYMBOL res 336 0 R90
WINDOW 0 0 56 VBottom 2
WINDOW 3 32 56 VTop 2
SYMATTR InstName Rf
SYMATTR Value 20k
SYMBOL voltage 560 16 R0
WINDOW 123 0 0 Left 2
WINDOW 39 0 0 Left 2
SYMATTR InstName V2
SYMATTR Value 10
SYMBOL Opamps\\LT1001 240 80 R0
SYMATTR InstName U1
SYMBOL voltage 480 192 R0
WINDOW 123 0 0 Left 2
WINDOW 39 0 0 Left 2
SYMATTR InstName V3
SYMATTR Value -10
TEXT -136 312 Left 2 !.tran 1
